Input Parameters:
   integrator                     = sd
   tinit                          = 0
   dt                             = 0.002
   nsteps                         = 10000000
   init-step                      = 0
   simulation-part                = 1
   mts                            = false
   mass-repartition-factor        = 1
   comm-mode                      = Linear
   nstcomm                        = 1000
   bd-fric                        = 0
   ld-seed                        = -98307
   emtol                          = 10
   emstep                         = 0.01
   niter                          = 20
   fcstep                         = 0
   nstcgsteep                     = 1000
   nbfgscorr                      = 10
   rtpi                           = 0.05
   nstxout                        = 200
   nstvout                        = 200
   nstfout                        = 200
   nstlog                         = 200
   nstcalcenergy                  = 100
   nstenergy                      = 200
   nstxout-compressed             = 200
   compressed-x-precision         = 1000
   cutoff-scheme                  = Verlet
   nstlist                        = 10
   pbc                            = xyz
   periodic-molecules             = false
   verlet-buffer-tolerance        = 0.005
   verlet-buffer-pressure-tolerance = -1
   rlist                          = 1.034
   coulombtype                    = Cut-off
   coulomb-modifier               = Potential-shift
   rcoulomb-switch                = 0
   rcoulomb                       = 1
   epsilon-r                      = 1
   epsilon-rf                     = inf
   vdw-type                       = Cut-off
   vdw-modifier                   = Potential-shift
   rvdw-switch                    = 0
   rvdw                           = 1
   DispCorr                       = No
   table-extension                = 1
   fourierspacing                 = 0.12
   fourier-nx                     = 0
   fourier-ny                     = 0
   fourier-nz                     = 0
   pme-order                      = 4
   ewald-rtol                     = 1e-05
   ewald-rtol-lj                  = 0.001
   lj-pme-comb-rule               = Geometric
   ewald-geometry                 = 3d
   epsilon-surface                = 0
   ensemble-temperature-setting   = constant
   ensemble-temperature           = 300
   tcoupl                         = No
   nsttcouple                     = -1
   nh-chain-length                = 0
   print-nose-hoover-chain-variables = false
   pcoupl                         = No
   refcoord-scaling               = No
   posres-com (3):
      posres-com[0]= 0.00000e+00
      posres-com[1]= 0.00000e+00
      posres-com[2]= 0.00000e+00
   posres-comB (3):
      posres-comB[0]= 0.00000e+00
      posres-comB[1]= 0.00000e+00
      posres-comB[2]= 0.00000e+00
   QMMM                           = false
qm-opts:
   ngQM                           = 0
   constraint-algorithm           = Lincs
   continuation                   = false
   Shake-SOR                      = false
   shake-tol                      = 0.0001
   lincs-order                    = 4
   lincs-iter                     = 4
   lincs-warnangle                = 30
   nwall                          = 0
   wall-type                      = 9-3
   wall-r-linpot                  = -1
   wall-atomtype[0]               = -1
   wall-atomtype[1]               = -1
   wall-density[0]                = 0
   wall-density[1]                = 0
   wall-ewald-zfac                = 3
   pull                           = false
   awh                            = false
   rotation                       = false
   interactiveMD                  = false
   disre                          = No
   disre-weighting                = Conservative
   disre-mixed                    = false
   dr-fc                          = 1000
   dr-tau                         = 0
   nstdisreout                    = 100
   orire-fc                       = 0
   orire-tau                      = 0
   nstorireout                    = 100
   free-energy                    = no
   cos-acceleration               = 0
   deform (3x3):
      deform[    0]={ 0.00000e+00,  0.00000e+00,  0.00000e+00}
      deform[    1]={ 0.00000e+00,  0.00000e+00,  0.00000e+00}
      deform[    2]={ 0.00000e+00,  0.00000e+00,  0.00000e+00}
   simulated-tempering            = false
   swapcoords                     = no
   userint1                       = 0
   userint2                       = 0
   userint3                       = 0
   userint4                       = 0
   userreal1                      = 0
   userreal2                      = 0
   userreal3                      = 0
   userreal4                      = 0
   applied-forces:
     electric-field:
       x:
         E0                       = 0
         omega                    = 0
         t0                       = 0
         sigma                    = 0
       y:
         E0                       = 0
         omega                    = 0
         t0                       = 0
         sigma                    = 0
       z:
         E0                       = 0
         omega                    = 0
         t0                       = 0
         sigma                    = 0
     density-guided-simulation:
       active                     = false
       group                      = protein
       similarity-measure         = inner-product
       atom-spreading-weight      = unity
       force-constant             = 1e+09
       gaussian-transform-spreading-width = 0.2
       gaussian-transform-spreading-range-in-multiples-of-width = 4
       reference-density-filename = reference.mrc
       nst                        = 1
       normalize-densities        = true
       adaptive-force-scaling     = false
       adaptive-force-scaling-time-constant = 4
       shift-vector               =
       transformation-matrix      =
grpopts:
   nrdf:          51
   ref-t:         300
   tau-t:        0.05
annealing:          No
annealing-npoints:           0
   acc:	           0           0           0
   nfreeze:           N           N           N
   energygrp-flags[  0]: 0

The -nsteps functionality is deprecated, and may be removed in a future version. Consider using gmx convert-tpr -nsteps or changing the appropriate .mdp file field.

Overriding nsteps with value passed on the command line: 5000000 steps, 1e+04 ps

Changing rlist from 1.034 to 1.054 for non-bonded 8x4 atom kernels

Changing nstlist from 10 to 40, rlist from 1.054 to 1.257

When checking whether update groups are usable:
  Domain decomposition is not active, so there is no need for update groups

Update task can not run on the GPU, because the following condition(s) were not satisfied:

Only the md integrator is supported.
PLUMED is not supported.

1 GPU selected for this run.
Mapping of GPU IDs to the 1 GPU task in the 1 rank on this node:
  PP:0
PP tasks will do (non-perturbed) short-ranged interactions on the GPU
PP task will update and constrain coordinates on the CPU
Using 1 MPI process
Using 30 OpenMP threads

System total charge: -0.000
Potential shift: LJ r^-12: -1.000e+00 r^-6: -1.000e+00, Coulomb -1e+00
Generated table with 1128 data points for 1-4 COUL.
Tabscale = 500 points/nm
Generated table with 1128 data points for 1-4 LJ6.
Tabscale = 500 points/nm
Generated table with 1128 data points for 1-4 LJ12.
Tabscale = 500 points/nm

Using GPU 8x8 nonbonded short-range kernels

Using a dual 8x8 pair-list setup updated with dynamic, rolling pruning:
  outer list: updated every 40 steps, buffer 0.257 nm, rlist 1.257 nm
  inner list: updated every  4 steps, buffer 0.021 nm, rlist 1.021 nm
At tolerance 0.005 kJ/mol/ps per atom, equivalent classical 1x1 list would be:
  outer list: updated every 40 steps, buffer 0.337 nm, rlist 1.337 nm
  inner list: updated every  4 steps, buffer 0.031 nm, rlist 1.031 nm

The average pressure is off by at most 0.00 bar due to missing LJ interactions

Using Lorentz-Berthelot Lennard-Jones combination rule
Removing pbc first time

NOTE: The number of threads is not equal to the number of (logical) cpus
      and the -pin option is set to auto: will not pin threads to cpus.
      This can lead to significant performance degradation.
      Consider using -pin on (and -pinoffset in case you run multiple jobs).

Initializing LINear Constraint Solver

The number of constraints is 12

There are: 22 Atoms

Constraining the starting coordinates (step 0)

Constraining the coordinates at t0-dt (step 0)
Center of mass motion removal mode is Linear
We have the following groups for center of mass motion removal:
  0:  rest
RMS relative constraint deviation after constraining: 1.64e-07
Initial temperature: 318.432 K

PLUMED: PLUMED is starting
PLUMED: Version: 2.10b (git: Unknown) compiled on Mar 16 2025 at 23:53:19
PLUMED: Please cite these papers when using PLUMED [1][2]
PLUMED: For further information see the PLUMED web page at http://www.plumed.org
PLUMED: Root: /usr/local/lib/plumed
PLUMED: LibraryPath: /usr/local/lib/libplumedKernel.so
PLUMED: For installed feature, see /usr/local/lib/plumed/src/config/config.txt
PLUMED: Molecular dynamics engine: gromacs
PLUMED: Precision of reals: 4
PLUMED: Running over 1 node
PLUMED: Number of threads: 30
PLUMED: Cache line size: 512
PLUMED: Number of atoms: 22
PLUMED: File suffix:
PLUMED: FILE: ../plumed.dat
PLUMED: Action LOAD
PLUMED:   with label @0
PLUMED: Loading shared library ../../pytorch_model_bias.so at 0x557f2bf49a20
PLUMED: Here is the list of new actions
PLUMED:
PLUMED: PYTORCH_MODEL_BIAS
PLUMED:
PLUMED: Action TORSION
PLUMED:   with label phi
PLUMED:   between atoms 5 7 9 15
PLUMED:   using periodic boundary conditions
PLUMED: Action TORSION
PLUMED:   with label psi
PLUMED:   between atoms 7 9 15 17
PLUMED:   using periodic boundary conditions
PLUMED: Action TORSION
PLUMED:   with label theta
PLUMED:   between atoms 6 5 7 9
PLUMED:   using periodic boundary conditions
PLUMED: Action ENERGY
PLUMED:   with label ene
PLUMED: WARNING for action ENERGY with label ene : documentation for the value calculated by this action has not been included
PLUMED:   Bibliography [1][2]
PLUMED: Action DISTANCE
PLUMED:   with label x1
PLUMED:   between atoms 2 5
PLUMED:   using periodic boundary conditions
PLUMED: Action DISTANCE
PLUMED:   with label x2
PLUMED:   between atoms 2 6
PLUMED:   using periodic boundary conditions
PLUMED: Action DISTANCE
PLUMED:   with label x3
PLUMED:   between atoms 2 7
PLUMED:   using periodic boundary conditions
PLUMED: Action DISTANCE
PLUMED:   with label x4
PLUMED:   between atoms 2 9
PLUMED:   using periodic boundary conditions
PLUMED: Action DISTANCE
PLUMED:   with label x5
PLUMED:   between atoms 2 11
PLUMED:   using periodic boundary conditions
PLUMED: Action DISTANCE
PLUMED:   with label x6
PLUMED:   between atoms 2 15
PLUMED:   using periodic boundary conditions
PLUMED: Action DISTANCE
PLUMED:   with label x7
PLUMED:   between atoms 2 16
PLUMED:   using periodic boundary conditions
PLUMED: Action DISTANCE
PLUMED:   with label x8
PLUMED:   between atoms 2 17
PLUMED:   using periodic boundary conditions
PLUMED: Action DISTANCE
PLUMED:   with label x9
PLUMED:   between atoms 2 19
PLUMED:   using periodic boundary conditions
PLUMED: Action DISTANCE
PLUMED:   with label x10
PLUMED:   between atoms 5 6
PLUMED:   using periodic boundary conditions
PLUMED: Action DISTANCE
PLUMED:   with label x11
PLUMED:   between atoms 5 7
PLUMED:   using periodic boundary conditions
PLUMED: Action DISTANCE
PLUMED:   with label x12
PLUMED:   between atoms 5 9
PLUMED:   using periodic boundary conditions
PLUMED: Action DISTANCE
PLUMED:   with label x13
PLUMED:   between atoms 5 11
PLUMED:   using periodic boundary conditions
PLUMED: Action DISTANCE
PLUMED:   with label x14
PLUMED:   between atoms 5 15
PLUMED:   using periodic boundary conditions
PLUMED: Action DISTANCE
PLUMED:   with label x15
PLUMED:   between atoms 5 16
PLUMED:   using periodic boundary conditions
PLUMED: Action DISTANCE
PLUMED:   with label x16
PLUMED:   between atoms 5 17
PLUMED:   using periodic boundary conditions
PLUMED: Action DISTANCE
PLUMED:   with label x17
PLUMED:   between atoms 5 19
PLUMED:   using periodic boundary conditions
PLUMED: Action DISTANCE
PLUMED:   with label x18
PLUMED:   between atoms 6 7
PLUMED:   using periodic boundary conditions
PLUMED: Action DISTANCE
PLUMED:   with label x19
PLUMED:   between atoms 6 9
PLUMED:   using periodic boundary conditions
PLUMED: Action DISTANCE
PLUMED:   with label x20
PLUMED:   between atoms 6 11
PLUMED:   using periodic boundary conditions
PLUMED: Action DISTANCE
PLUMED:   with label x21
PLUMED:   between atoms 6 15
PLUMED:   using periodic boundary conditions
PLUMED: Action DISTANCE
PLUMED:   with label x22
PLUMED:   between atoms 6 16
PLUMED:   using periodic boundary conditions
PLUMED: Action DISTANCE
PLUMED:   with label x23
PLUMED:   between atoms 6 17
PLUMED:   using periodic boundary conditions
PLUMED: Action DISTANCE
PLUMED:   with label x24
PLUMED:   between atoms 6 19
PLUMED:   using periodic boundary conditions
PLUMED: Action DISTANCE
PLUMED:   with label x25
PLUMED:   between atoms 7 9
PLUMED:   using periodic boundary conditions
PLUMED: Action DISTANCE
PLUMED:   with label x26
PLUMED:   between atoms 7 11
PLUMED:   using periodic boundary conditions
PLUMED: Action DISTANCE
PLUMED:   with label x27
PLUMED:   between atoms 7 15
PLUMED:   using periodic boundary conditions
PLUMED: Action DISTANCE
PLUMED:   with label x28
PLUMED:   between atoms 7 16
PLUMED:   using periodic boundary conditions
PLUMED: Action DISTANCE
PLUMED:   with label x29
PLUMED:   between atoms 7 17
PLUMED:   using periodic boundary conditions
PLUMED: Action DISTANCE
PLUMED:   with label x30
PLUMED:   between atoms 7 19
PLUMED:   using periodic boundary conditions
PLUMED: Action DISTANCE
PLUMED:   with label x31
PLUMED:   between atoms 9 11
PLUMED:   using periodic boundary conditions
PLUMED: Action DISTANCE
PLUMED:   with label x32
PLUMED:   between atoms 9 15
PLUMED:   using periodic boundary conditions
PLUMED: Action DISTANCE
PLUMED:   with label x33
PLUMED:   between atoms 9 16
PLUMED:   using periodic boundary conditions
PLUMED: Action DISTANCE
PLUMED:   with label x34
PLUMED:   between atoms 9 17
PLUMED:   using periodic boundary conditions
PLUMED: Action DISTANCE
PLUMED:   with label x35
PLUMED:   between atoms 9 19
PLUMED:   using periodic boundary conditions
PLUMED: Action DISTANCE
PLUMED:   with label x36
PLUMED:   between atoms 11 15
PLUMED:   using periodic boundary conditions
PLUMED: Action DISTANCE
PLUMED:   with label x37
PLUMED:   between atoms 11 16
PLUMED:   using periodic boundary conditions
PLUMED: Action DISTANCE
PLUMED:   with label x38
PLUMED:   between atoms 11 17
PLUMED:   using periodic boundary conditions
PLUMED: Action DISTANCE
PLUMED:   with label x39
PLUMED:   between atoms 11 19
PLUMED:   using periodic boundary conditions
PLUMED: Action DISTANCE
PLUMED:   with label x40
PLUMED:   between atoms 15 16
PLUMED:   using periodic boundary conditions
PLUMED: Action DISTANCE
PLUMED:   with label x41
PLUMED:   between atoms 15 17
PLUMED:   using periodic boundary conditions
PLUMED: Action DISTANCE
PLUMED:   with label x42
PLUMED:   between atoms 15 19
PLUMED:   using periodic boundary conditions
PLUMED: Action DISTANCE
PLUMED:   with label x43
PLUMED:   between atoms 16 17
PLUMED:   using periodic boundary conditions
PLUMED: Action DISTANCE
PLUMED:   with label x44
PLUMED:   between atoms 16 19
PLUMED:   using periodic boundary conditions
PLUMED: Action DISTANCE
PLUMED:   with label x45
PLUMED:   between atoms 17 19
PLUMED:   using periodic boundary conditions
PLUMED: Action POSITION
PLUMED:   with label p1
PLUMED:   for atom 2
PLUMED:   added component to this action:  p1.a
PLUMED:   added component to this action:  p1.b
PLUMED:   added component to this action:  p1.c
PLUMED:   using periodic boundary conditions
PLUMED: Action POSITION
PLUMED:   with label p2
PLUMED:   for atom 5
PLUMED:   added component to this action:  p2.a
PLUMED:   added component to this action:  p2.b
PLUMED:   added component to this action:  p2.c
PLUMED:   using periodic boundary conditions
PLUMED: Action POSITION
PLUMED:   with label p3
PLUMED:   for atom 6
PLUMED:   added component to this action:  p3.a
PLUMED:   added component to this action:  p3.b
PLUMED:   added component to this action:  p3.c
PLUMED:   using periodic boundary conditions
PLUMED: Action POSITION
PLUMED:   with label p4
PLUMED:   for atom 7
PLUMED:   added component to this action:  p4.a
PLUMED:   added component to this action:  p4.b
PLUMED:   added component to this action:  p4.c
PLUMED:   using periodic boundary conditions
PLUMED: Action POSITION
PLUMED:   with label p5
PLUMED:   for atom 9
PLUMED:   added component to this action:  p5.a
PLUMED:   added component to this action:  p5.b
PLUMED:   added component to this action:  p5.c
PLUMED:   using periodic boundary conditions
PLUMED: Action POSITION
PLUMED:   with label p6
PLUMED:   for atom 11
PLUMED:   added component to this action:  p6.a
PLUMED:   added component to this action:  p6.b
PLUMED:   added component to this action:  p6.c
PLUMED:   using periodic boundary conditions
PLUMED: Action POSITION
PLUMED:   with label p7
PLUMED:   for atom 15
PLUMED:   added component to this action:  p7.a
PLUMED:   added component to this action:  p7.b
PLUMED:   added component to this action:  p7.c
PLUMED:   using periodic boundary conditions
PLUMED: Action POSITION
PLUMED:   with label p8
PLUMED:   for atom 16
PLUMED:   added component to this action:  p8.a
PLUMED:   added component to this action:  p8.b
PLUMED:   added component to this action:  p8.c
PLUMED:   using periodic boundary conditions
PLUMED: Action POSITION
PLUMED:   with label p9
PLUMED:   for atom 17
PLUMED:   added component to this action:  p9.a
PLUMED:   added component to this action:  p9.b
PLUMED:   added component to this action:  p9.c
PLUMED:   using periodic boundary conditions
PLUMED: Action POSITION
PLUMED:   with label p10
PLUMED:   for atom 19
PLUMED:   added component to this action:  p10.a
PLUMED:   added component to this action:  p10.b
PLUMED:   added component to this action:  p10.c
PLUMED:   using periodic boundary conditions
PLUMED: Action CELL
PLUMED:   with label cell
PLUMED:   added component to this action:  cell.ax
PLUMED:   added component to this action:  cell.ay
PLUMED:   added component to this action:  cell.az
PLUMED:   added component to this action:  cell.bx
PLUMED:   added component to this action:  cell.by
PLUMED:   added component to this action:  cell.bz
PLUMED:   added component to this action:  cell.cx
PLUMED:   added component to this action:  cell.cy
PLUMED:   added component to this action:  cell.cz
PLUMED: Action PYTORCH_MODEL_BIAS
PLUMED:   from library: ../../pytorch_model_bias.so
PLUMED:   with label z
PLUMED:   with arguments :
PLUMED:    scalar with label x1
PLUMED:    scalar with label x2
PLUMED:    scalar with label x3
PLUMED:    scalar with label x4
PLUMED:    scalar with label x5
PLUMED:    scalar with label x6
PLUMED:    scalar with label x7
PLUMED:    scalar with label x8
PLUMED:    scalar with label x9
PLUMED:    scalar with label x10
PLUMED:    scalar with label x11
PLUMED:    scalar with label x12
PLUMED:    scalar with label x13
PLUMED:    scalar with label x14
PLUMED:    scalar with label x15
PLUMED:    scalar with label x16
PLUMED:    scalar with label x17
PLUMED:    scalar with label x18
PLUMED:    scalar with label x19
PLUMED:    scalar with label x20
PLUMED:    scalar with label x21
PLUMED:    scalar with label x22
PLUMED:    scalar with label x23
PLUMED:    scalar with label x24
PLUMED:    scalar with label x25
PLUMED:    scalar with label x26
PLUMED:    scalar with label x27
PLUMED:    scalar with label x28
PLUMED:    scalar with label x29
PLUMED:    scalar with label x30
PLUMED:    scalar with label x31
PLUMED:    scalar with label x32
PLUMED:    scalar with label x33
PLUMED:    scalar with label x34
PLUMED:    scalar with label x35
PLUMED:    scalar with label x36
PLUMED:    scalar with label x37
PLUMED:    scalar with label x38
PLUMED:    scalar with label x39
PLUMED:    scalar with label x40
PLUMED:    scalar with label x41
PLUMED:    scalar with label x42
PLUMED:    scalar with label x43
PLUMED:    scalar with label x44
PLUMED:    scalar with label x45
PLUMED: CUDA is available. Using GPU 0
PLUMED: Total CUDA devices: 1
PLUMED: Model loaded successfully
PLUMED: Model successfully moved to CUDA device
PLUMED: Checking output dimension:
PLUMED:   added component to this action:  z.node-0
PLUMED:   added component to this action:  z.bias-0
PLUMED: Number of input: 45
PLUMED: Number of outputs: 1
PLUMED:   Bibliography: [1][2]
PLUMED: Action CUSTOM
PLUMED:   with label q
PLUMED:   with arguments :
PLUMED:    scalar with label z.node-0
PLUMED:   with function : 1/(1+exp(-3*z))
PLUMED:   with variables : z
PLUMED:   function as parsed by lepton: recip(1+(exp(-3*(z))))
PLUMED:   derivatives as computed by lepton:
PLUMED:     (3*(exp(-3*(z))))/(square(1+(exp(-3*(z)))))
PLUMED:   not calculating when all arguments are zero
PLUMED: Action CUSTOM
PLUMED:   with label bias
PLUMED:   with arguments :
PLUMED:    scalar with label z.bias-0
PLUMED:    scalar with label q
PLUMED:   with function : -2*(zbias+2*log(q+1e-7)+2*log(1.0-q+1e-7))
PLUMED:   with variables : zbias q
PLUMED:   function as parsed by lepton: -2*(((zbias)+(2*(log(1e-07+(q)))))+(2*(log(1e-07+((1)-(q))))))
PLUMED:   derivatives as computed by lepton:
PLUMED:     -2
PLUMED:     -2*((2*(recip(1e-07+(q))))+(-2*(recip(1e-07+((1)-(q))))))
PLUMED: Action BIASVALUE
PLUMED:   with label @123
PLUMED:   with arguments :
PLUMED:    scalar with label bias
PLUMED:   added component to this action:  @123.bias
PLUMED:   added component to this action:  @123.bias_bias
PLUMED: Action OPES_METAD
PLUMED:   with label opes
PLUMED:   with arguments :
PLUMED:    scalar with label z.node-0
PLUMED:   added component to this action:  opes.bias
PLUMED:   added component to this action:  opes.rct
PLUMED:   added component to this action:  opes.zed
PLUMED:   added component to this action:  opes.neff
PLUMED:   added component to this action:  opes.nker
PLUMED:   temperature = 300
PLUMED:   beta = 0.400908
PLUMED:   depositing new kernels with PACE = 500
PLUMED:   expected BARRIER is 30
PLUMED:   using target distribution with BIASFACTOR gamma = 12.0272
PLUMED:   adaptive SIGMA will be used, with ADAPTIVE_SIGMA_STRIDE = 5000
PLUMED:     thus the first x kernel depositions will be skipped, x = ADAPTIVE_SIGMA_STRIDE/PACE = 10
PLUMED:   kernels are truncated with KERNELS_CUTOFF = 5.12209
PLUMED:   the value at cutoff is = 2.0089e-06
PLUMED:   regularization EPSILON = 2.0089e-06
PLUMED:   kernels will be compressed when closer than COMPRESSION_THRESHOLD = 1
PLUMED:   using multiple OpenMP threads per simulation: 30
PLUMED:   Bibliography: [1][2]
PLUMED: Action PRINT
PLUMED:   with label @125
PLUMED:   with stride 500
PLUMED:   with arguments :
PLUMED:    scalar with label phi
PLUMED:    scalar with label psi
PLUMED:    scalar with label theta
PLUMED:    scalar with label ene
PLUMED:    scalar with label x1
PLUMED:    scalar with label x2
PLUMED:    scalar with label x3
PLUMED:    scalar with label x4
PLUMED:    scalar with label x5
PLUMED:    scalar with label x6
PLUMED:    scalar with label x7
PLUMED:    scalar with label x8
PLUMED:    scalar with label x9
PLUMED:    scalar with label x10
PLUMED:    scalar with label x11
PLUMED:    scalar with label x12
PLUMED:    scalar with label x13
PLUMED:    scalar with label x14
PLUMED:    scalar with label x15
PLUMED:    scalar with label x16
PLUMED:    scalar with label x17
PLUMED:    scalar with label x18
PLUMED:    scalar with label x19
PLUMED:    scalar with label x20
PLUMED:    scalar with label x21
PLUMED:    scalar with label x22
PLUMED:    scalar with label x23
PLUMED:    scalar with label x24
PLUMED:    scalar with label x25
PLUMED:    scalar with label x26
PLUMED:    scalar with label x27
PLUMED:    scalar with label x28
PLUMED:    scalar with label x29
PLUMED:    scalar with label x30
PLUMED:    scalar with label x31
PLUMED:    scalar with label x32
PLUMED:    scalar with label x33
PLUMED:    scalar with label x34
PLUMED:    scalar with label x35
PLUMED:    scalar with label x36
PLUMED:    scalar with label x37
PLUMED:    scalar with label x38
PLUMED:    scalar with label x39
PLUMED:    scalar with label x40
PLUMED:    scalar with label x41
PLUMED:    scalar with label x42
PLUMED:    scalar with label x43
PLUMED:    scalar with label x44
PLUMED:    scalar with label x45
PLUMED:    scalar with label p1.a
PLUMED:    scalar with label p1.b
PLUMED:    scalar with label p1.c
PLUMED:    scalar with label p2.a
PLUMED:    scalar with label p2.b
PLUMED:    scalar with label p2.c
PLUMED:    scalar with label p3.a
PLUMED:    scalar with label p3.b
PLUMED:    scalar with label p3.c
PLUMED:    scalar with label p4.a
PLUMED:    scalar with label p4.b
PLUMED:    scalar with label p4.c
PLUMED:    scalar with label p5.a
PLUMED:    scalar with label p5.b
PLUMED:    scalar with label p5.c
PLUMED:    scalar with label p6.a
PLUMED:    scalar with label p6.b
PLUMED:    scalar with label p6.c
PLUMED:    scalar with label p7.a
PLUMED:    scalar with label p7.b
PLUMED:    scalar with label p7.c
PLUMED:    scalar with label p8.a
PLUMED:    scalar with label p8.b
PLUMED:    scalar with label p8.c
PLUMED:    scalar with label p9.a
PLUMED:    scalar with label p9.b
PLUMED:    scalar with label p9.c
PLUMED:    scalar with label p10.a
PLUMED:    scalar with label p10.b
PLUMED:    scalar with label p10.c
PLUMED:    scalar with label cell.ax
PLUMED:    scalar with label cell.ay
PLUMED:    scalar with label cell.az
PLUMED:    scalar with label cell.bx
PLUMED:    scalar with label cell.by
PLUMED:    scalar with label cell.bz
PLUMED:    scalar with label cell.cx
PLUMED:    scalar with label cell.cy
PLUMED:    scalar with label cell.cz
PLUMED:    scalar with label z.node-0
PLUMED:    scalar with label z.bias-0
PLUMED:    scalar with label q
PLUMED:    scalar with label bias
PLUMED:    scalar with label @123.bias
PLUMED:    scalar with label @123.bias_bias
PLUMED:    scalar with label opes.bias
PLUMED:    scalar with label opes.rct
PLUMED:    scalar with label opes.zed
PLUMED:    scalar with label opes.neff
PLUMED:    scalar with label opes.nker
PLUMED:   on file COLVAR
PLUMED:   with format  %g
PLUMED: Action ENDPLUMED
PLUMED:   with label @126
PLUMED: END FILE: ../plumed.dat
PLUMED: Timestep: 0.002000
PLUMED: KbT: 2.494339
PLUMED: Relevant bibliography:
PLUMED:   [1] M. Invernizzi and M. Parrinello, J. Phys. Chem. Lett. 11, 2731-2736 (2020)
PLUMED:   [2] M. Invernizzi and M. Parrinello, J. Chem. Theory Comput. 18, 3988-3996 (2022)
PLUMED: Please read and cite where appropriate!
PLUMED: Finished setup
Started mdrun on rank 0 Mon Mar 17 14:45:32 2025

           Step           Time
              0        0.00000

   Energies (kJ/mol)
           Bond          Angle    Proper Dih. Per. Imp. Dih.          LJ-14
    3.88681e+00    4.01987e+01    5.02849e+01    1.72607e+00    1.15940e+01
     Coulomb-14        LJ (SR)   Coulomb (SR)      Potential    Kinetic En.
    1.83062e+02   -7.03918e-01   -3.29794e+02   -3.97462e+01    7.23790e+01
    3.26328e+01    3.41380e+02    4.15596e+01    2.10734e-07

	<====  A V E R A G E S  ====>

	Statistics over 1721 steps using 18 frames

   Energies (kJ/mol)
           Bond          Angle    Proper Dih. Per. Imp. Dih.          LJ-14
    1.49152e+01    5.67689e+01    4.01386e+01    2.47509e+00    1.10212e+01
     Coulomb-14        LJ (SR)   Coulomb (SR)      Potential    Kinetic En.
    1.79456e+02   -3.01535e+00   -3.13541e+02   -1.17819e+01    6.52527e+01
   Total Energy    Temperature Pressure (bar)   Constr. rmsd
    5.34707e+01    3.07768e+02    1.93380e+01    0.00000e+00

   Total Virial (kJ/mol)
   -3.55775e+01    1.86362e+01   -2.69625e+01
    1.86361e+01    6.82815e+00   -2.79640e+01
   -2.69626e+01   -2.79641e+01    4.57277e+01

   Pressure (bar)
    7.03019e+01   -2.64327e+01    3.27748e+01
   -2.64327e+01    1.74293e+01    3.44718e+01
    3.27749e+01    3.44718e+01   -2.97171e+01
